
     RDKit          3D

 10  9  0  0  0  0  0  0  0  0999 V2000
   -1.3071    0.0456    0.0640 C   0  0  0  0  0  0  0  0  0  0  0  0
    0.0423   -0.0267   -0.5823 C   0  0  0  0  0  0  0  0  0  0  0  0
    0.1245   -0.0823   -1.7996 O   0  0  0  0  0  0  0  0  0  0  0  0
    1.2879   -0.0313    0.2510 C   0  0  0  0  0  0  0  0  0  0  0  0
   -1.8400    0.9541   -0.2870 H   0  0  0  0  0  0  0  0  0  0  0  0
   -1.2137    0.0906    1.1699 H   0  0  0  0  0  0  0  0  0  0  0  0
   -1.8993   -0.8530   -0.2085 H   0  0  0  0  0  0  0  0  0  0  0  0
    1.2774   -0.9078    0.9322 H   0  0  0  0  0  0  0  0  0  0  0  0
    2.1912   -0.0889   -0.3933 H   0  0  0  0  0  0  0  0  0  0  0  0
    1.3367    0.8997    0.8536 H   0  0  0  0  0  0  0  0  0  0  0  0
  1  2  1  0
  2  3  2  0
  2  4  1  0
  1  5  1  0
  1  6  1  0
  1  7  1  0
  4  8  1  0
  4  9  1  0
  4 10  1  0
M  END
